opendss/linhas_bt.dss
new line.52873800 phases=3 bus1=80433785270562.1.2.3.0 bus2=80433755270562.1.2.3.0 r1=0.975 x1=0.47 length=0.012416 units=km normamps=152.0
new line.52873805 phases=3 bus1=80433755270562.1.2.3.0 bus2=80433855270562.1.2.3.0 r1=0.975 x1=0.47 length=0.028677 units=km normamps=152.0
new line.52873808 phases=3 bus1=80433875270562.1.2.3.0 bus2=80433885270562.1.2.3.0 r1=0.975 x1=0.47 length=0.016101 units=km normamps=152.0
new line.52873815 phases=3 bus1=80433895284430.1.2.3.0 bus2=80433955284430.1.2.3.0 r1=0.991 x1=0.1 length=0.033632 units=km normamps=100.0
new line.52873816 phases=3 bus1=80433975270562.1.2.3.0 bus2=80433965270562.1.2.3.0 r1=0.613 x1=0.45 length=0.036684 units=km normamps=203.0
new line.52873823 phases=3 bus1=80434105270562.1.2.3.0 bus2=80434035270562.1.2.3.0 r1=0.613 x1=0.45 length=0.031706 units=km normamps=203.0
new line.52873839 phases=3 bus1=80433605270563.1.2.3.0 bus2=80433675270563.1.2.3.0 r1=0.975 x1=0.47 length=0.03868 units=km normamps=152.0
new line.52873843 phases=3 bus1=80433695270563.1.2.3.0 bus2=80433705270563.1.2.3.0 r1=0.975 x1=0.47 length=0.034359 units=km normamps=152.0
new line.52873844 phases=3 bus1=80433705270563.1.2.3.0 bus2=80433715270563.1.2.3.0 r1=0.975 x1=0.47 length=0.025564 units=km normamps=152.0
new line.52873845 phases=3 bus1=80433715270563.1.2.3.0 bus2=80433725270563.1.2.3.0 r1=0.975 x1=0.47 length=0.036816 units=km normamps=152.0
new line.52873849 phases=3 bus1=80433805270563.1.2.3.0 bus2=93432685270563.1.2.3.0 r1=0.975 x1=0.47 length=0.015128 units=km normamps=152.0
new line.52873852 phases=3 bus1=80434065270563.1.2.3.0 bus2=80434095270563.1.2.3.0 r1=0.613 x1=0.45 length=0.049332 units=km normamps=203.0
new line.52873854 phases=3 bus1=80434115270563.1.2.3.0 bus2=80433745270563.1.2.3.0 r1=0.613 x1=0.45 length=0.029777 units=km normamps=203.0
new line.52873858 phases=3 bus1=80434135270564.1.2.3.0 bus2=80434125270564.1.2.3.0 r1=0.975 x1=0.47 length=0.02966 units=km normamps=152.0
new line.52873859 phases=3 bus1=80434175270564.1.2.3.0 bus2=80434135270564.1.2.3.0 r1=0.975 x1=0.47 length=0.029725 units=km normamps=152.0
new line.52873862 phases=3 bus1=80434205270564.1.2.3.0 bus2=80434195270564.1.2.3.0 r1=0.613 x1=0.45 length=0.037834 units=km normamps=203.0
new line.52873866 phases=3 bus1=80435675270564.1.2.3.0 bus2=80435665270564.1.2.3.0 r1=0.975 x1=0.47 length=0.011061 units=km normamps=152.0
new line.52873873 phases=3 bus1=80437085270565.1.2.3.0 bus2=80437045270565.1.2.3.0 r1=0.975 x1=0.47 length=0.0311 units=km normamps=152.0
new line.52873875 phases=3 bus1=80437105270565.1.2.3.0 bus2=80437095270565.1.2.3.0 r1=0.975 x1=0.47 length=0.032481 units=km normamps=152.0
new line.52873876 phases=3 bus1=80434855270565.1.2.3.0 bus2=80437105270565.1.2.3.0 r1=0.975 x1=0.47 length=0.044813 units=km normamps=152.0
new line.52873880 phases=3 bus1=80434735270565.1.2.3.0 bus2=80434765270565.1.2.3.0 r1=0.613 x1=0.45 length=0.018855 units=km normamps=203.0
new line.52873881 phases=3 bus1=80434765270565.1.2.3.0 bus2=80434775270565.1.2.3.0 r1=0.613 x1=0.45 length=0.032998 units=km normamps=203.0
new line.52873882 phases=3 bus1=80434775270565.1.2.3.0 bus2=80434305270565.1.2.3.0 r1=0.613 x1=0.45 length=0.02607 units=km normamps=203.0
new line.52873883 phases=3 bus1=80434735270565.1.2.3.0 bus2=80434785270565.1.2.3.0 r1=0.975 x1=0.47 length=0.00622 units=km normamps=152.0
new line.52873884 phases=3 bus1=80434785270565.1.2.3.0 bus2=80434795270565.1.2.3.0 r1=0.975 x1=0.47 length=0.030092 units=km normamps=152.0
new line.52873896 phases=3 bus1=80434235270565.1.2.3.0 bus2=80434255270565.1.2.3.0 r1=0.975 x1=0.47 length=0.009427 units=km normamps=152.0
new line.52873897 phases=3 bus1=80434245270565.1.2.3.0 bus2=80434255270565.1.2.3.0 r1=0.613 x1=0.45 length=0.034996 units=km normamps=203.0
new line.52873899 phases=3 bus1=80434265270565.1.2.3.0 bus2=80434245270565.1.2.3.0 r1=0.613 x1=0.45 length=0.032287 units=km normamps=203.0
new line.52873902 phases=3 bus1=80434155270565.1.2.3.0 bus2=80434265270565.1.2.3.0 r1=0.613 x1=0.45 length=0.048103 units=km normamps=203.0
new line.52873905 phases=3 bus1=80437025270565.1.2.3.0 bus2=80435825270565.1.2.3.0 r1=0.506 x1=0.1 length=0.014584 units=km normamps=157.0
new line.52873906 phases=3 bus1=80437035270565.1.2.3.0 bus2=80437025270565.1.2.3.0 r1=0.613 x1=0.45 length=0.055454 units=km normamps=203.0
new line.52873907 phases=3 bus1=80437035270565.1.2.3.0 bus2=80437045270565.1.2.3.0 r1=0.975 x1=0.47 length=0.017383 units=km normamps=152.0
new line.52873908 phases=3 bus1=80437045270565.1.2.3.0 bus2=80437055270565.1.2.3.0 r1=0.975 x1=0.47 length=0.014791 units=km normamps=152.0
new line.52873910 phases=3 bus1=80434055270566.1.2.3.0 bus2=80434315270566.1.2.3.0 r1=1.564 x1=0.51 length=0.042693 units=km normamps=120.0
new line.52873911 phases=3 bus1=80434325270566.1.2.3.0 bus2=80434075270566.1.2.3.0 r1=1.564 x1=0.51 length=0.028272 units=km normamps=120.0
new line.52873913 phases=3 bus1=80434315270566.1.2.3.0 bus2=80434365270566.1.2.3.0 r1=1.564 x1=0.51 length=0.040003 units=km normamps=120.0
new line.52873914 phases=3 bus1=80434365270566.1.2.3.0 bus2=80434375270566.1.2.3.0 r1=1.564 x1=0.51 length=0.024052 units=km normamps=120.0
new line.52873919 phases=3 bus1=80434425270566.1.2.3.0 bus2=80434415270566.1.2.3.0 r1=1.564 x1=0.51 length=0.016487 units=km normamps=120.0
new line.52873922 phases=3 bus1=80434445270566.1.2.3.0 bus2=80434455270566.1.2.3.0 r1=1.564 x1=0.51 length=0.015098 units=km normamps=120.0
new line.52873925 phases=3 bus1=80434475270566.1.2.3.0 bus2=80434335270566.1.2.3.0 r1=1.564 x1=0.51 length=0.043683 units=km normamps=120.0
new line.52873928 phases=3 bus1=80434505270566.1.2.3.0 bus2=80434495270566.1.2.3.0 r1=0.613 x1=0.45 length=0.01509 units=km normamps=203.0
new line.52873937 phases=3 bus1=80434715270566.1.2.3.0 bus2=80434725270566.1.2.3.0 r1=0.975 x1=0.47 length=0.032897 units=km normamps=152.0
new line.52873938 phases=3 bus1=80434875270566.1.2.3.0 bus2=80434865270566.1.2.3.0 r1=0.975 x1=0.47 length=0.032738 units=km normamps=152.0
new line.52873944 phases=3 bus1=80434925270566.1.2.3.0 bus2=80434935270566.1.2.3.0 r1=0.613 x1=0.45 length=0.02651 units=km normamps=203.0
new line.52873952 phases=3 bus1=80434985270567.1.2.3.0 bus2=80434965270567.1.2.3.0 r1=0.613 x1=0.45 length=0.031962 units=km normamps=203.0
new line.52873956 phases=3 bus1=80435095270567.1.2.3.0 bus2=80435105270567.1.2.3.0 r1=0.975 x1=0.47 length=0.033182 units=km normamps=152.0
new line.52873957 phases=3 bus1=80435105270567.1.2.3.0 bus2=80434985270567.1.2.3.0 r1=0.975 x1=0.47 length=0.030213 units=km normamps=152.0
new line.52873958 phases=3 bus1=80435115270567.1.2.3.0 bus2=80434985270567.1.2.3.0 r1=0.613 x1=0.45 length=0.021489 units=km normamps=203.0
new line.52873960 phases=3 bus1=80435135270567.1.2.3.0 bus2=80435125270567.1.2.3.0 r1=0.613 x1=0.45 length=0.026996 units=km normamps=203.0
new line.52873963 phases=3 bus1=80435165270567.1.2.3.0 bus2=80435155270567.1.2.3.0 r1=0.975 x1=0.47 length=0.002895 units=km normamps=152.0
new line.52873964 phases=3 bus1=80435155270567.1.2.3.0 bus2=80435175270567.1.2.3.0 r1=0.975 x1=0.47 length=0.012306 units=km normamps=152.0
new line.52873968 phases=3 bus1=80435765270567.1.2.3.0 bus2=80435755270567.1.2.3.0 r1=0.975 x1=0.47 length=0.036022 units=km normamps=152.0
new line.52873975 phases=3 bus1=80435825270567.1.2.3.0 bus2=80435815270567.1.2.3.0 r1=0.991 x1=0.1 length=0.029654 units=km normamps=100.0
new line.52873981 phases=3 bus1=80435345270568.1.2.3.0 bus2=80435335270568.1.2.3.0 r1=0.991 x1=0.1 length=0.030346 units=km normamps=100.0
new line.52873983 phases=3 bus1=80435365270568.1.2.3.0 bus2=80435325270568.1.2.3.0 r1=0.991 x1=0.1 length=0.029711 units=km normamps=100.0
new line.52873990 phases=3 bus1=80435475270568.1.2.3.0 bus2=80435465270568.1.2.3.0 r1=0.975 x1=0.47 length=0.00859 units=km normamps=152.0
new line.52873991 phases=3 bus1=80435245270568.1.2.3.0 bus2=80435465270568.1.2.3.0 r1=0.506 x1=0.1 length=0.03303 units=km normamps=157.0
new line.52874000 phases=3 bus1=80435715270569.1.2.3.0 bus2=80435705270569.1.2.3.0 r1=0.975 x1=0.47 length=0.026763 units=km normamps=152.0
new line.52874004 phases=3 bus1=80437125270570.1.2.3.0 bus2=80437115270570.1.2.3.0 r1=0.975 x1=0.47 length=0.041148 units=km normamps=152.0
new line.52874008 phases=3 bus1=80435865270570.1.2.3.0 bus2=80435855270570.1.2.3.0 r1=0.613 x1=0.45 length=0.040117 units=km normamps=203.0
new line.52874012 phases=3 bus1=80434585270570.1.2.3.0 bus2=80434565270570.1.2.3.0 r1=0.975 x1=0.47 length=0.038938 units=km normamps=152.0
new line.52874014 phases=3 bus1=80434605270570.1.2.3.0 bus2=80434595270570.1.2.3.0 r1=0.975 x1=0.47 length=0.038438 units=km normamps=152.0
new line.52874015 phases=3 bus1=80434565270570.1.2.3.0 bus2=80434575270570.1.2.3.0 r1=0.975 x1=0.47 length=0.013643 units=km normamps=152.0
new line.52874017 phases=3 bus1=80434635270570.1.2.3.0 bus2=80434625270570.1.2.3.0 r1=0.975 x1=0.47 length=0.028516 units=km normamps=152.0
new line.52874018 phases=3 bus1=80434565270570.1.2.3.0 bus2=80434635270570.1.2.3.0 r1=0.975 x1=0.47 length=0.046007 units=km normamps=152.0
new line.52874019 phases=3 bus1=80434575270570.1.2.3.0 bus2=80434645270570.1.2.3.0 r1=0.975 x1=0.47 length=0.037052 units=km normamps=152.0
new line.52874025 phases=3 bus1=80434995270570.1.2.3.0 bus2=80435005270570.1.2.3.0 r1=0.975 x1=0.47 length=0.026227 units=km normamps=152.0
new line.52874027 phases=3 bus1=80435015270570.1.2.3.0 bus2=80435025270570.1.2.3.0 r1=0.975 x1=0.47 length=0.034767 units=km normamps=152.0
new line.52874031 phases=3 bus1=80435045270570.1.2.3.0 bus2=80434605270570.1.2.3.0 r1=0.975 x1=0.47 length=0.035211 units=km normamps=152.0
new line.52874032 phases=3 bus1=80435055270570.1.2.3.0 bus2=80435065270570.1.2.3.0 r1=0.613 x1=0.45 length=0.021498 units=km normamps=203.0
new line.52874034 phases=3 bus1=80438245270571.1.2.3.0 bus2=80439745270571.1.2.3.0 r1=0.975 x1=0.47 length=0.021571 units=km normamps=152.0
new line.52874035 phases=3 bus1=80438225270571.1.2.3.0 bus2=80439745270571.1.2.3.0 r1=0.975 x1=0.47 length=0.007451 units=km normamps=152.0
new line.52874039 phases=3 bus1=80438165270571.1.2.3.0 bus2=80438155270571.1.2.3.0 r1=0.975 x1=0.47 length=0.025728 units=km normamps=152.0
new line.52874041 phases=1 bus1=80438095270585.1.0 bus2=80438105270585.1.0 r1=0.975 x1=0.47 length=0.028064 units=km normamps=152.0
new line.52874047 phases=3 bus1=80438255270571.1.2.3.0 bus2=80438245270571.1.2.3.0 r1=0.975 x1=0.47 length=0.029803 units=km normamps=152.0
new line.52874053 phases=3 bus1=80438315270571.1.2.3.0 bus2=80438325270571.1.2.3.0 r1=0.613 x1=0.45 length=0.036863 units=km normamps=203.0
new line.52874054 phases=3 bus1=80438335270571.1.2.3.0 bus2=80438325270571.1.2.3.0 r1=0.975 x1=0.47 length=0.020806 units=km normamps=152.0
new line.52874059 phases=1 bus1=80437485270580.1.0 bus2=80437645270580.1.0 r1=1.551 x1=0.49 length=0.035199 units=km normamps=114.0
new line.52874064 phases=3 bus1=80437565270581.1.2.3.0 bus2=80437185270581.1.2.3.0 r1=0.975 x1=0.47 length=0.020751 units=km normamps=152.0
new line.52874065 phases=3 bus1=80437185270581.1.2.3.0 bus2=80437575270581.1.2.3.0 r1=0.975 x1=0.47 length=0.027289 units=km normamps=152.0
new line.52874068 phases=3 bus1=80437595270581.1.2.3.0 bus2=80437605270581.1.2.3.0 r1=0.975 x1=0.47 length=0.029621 units=km normamps=152.0
new line.52874069 phases=3 bus1=80437595270581.1.2.3.0 bus2=80437615270581.1.2.3.0 r1=0.613 x1=0.45 length=0.031669 units=km normamps=203.0
new line.52874076 phases=3 bus1=80437665270582.1.2.3.0 bus2=80437675270582.1.2.3.0 r1=0.613 x1=0.45 length=0.027292 units=km normamps=203.0
new line.52874080 phases=3 bus1=80439025270582.1.2.3.0 bus2=80439015270582.1.2.3.0 r1=0.975 x1=0.47 length=0.013146 units=km normamps=152.0
new line.52874081 phases=3 bus1=80437695270582.1.2.3.0 bus2=80439025270582.1.2.3.0 r1=0.613 x1=0.45 length=0.04146 units=km normamps=203.0
new line.52874085 phases=3 bus1=80438425270572.1.2.3.0 bus2=80439605270572.1.2.3.0 r1=0.613 x1=0.45 length=0.021278 units=km normamps=203.0
new line.52874089 phases=3 bus1=80439635270572.1.2.3.0 bus2=80439645270572.1.2.3.0 r1=0.975 x1=0.47 length=0.020856 units=km normamps=152.0
new line.52874092 phases=1 bus1=80439665270572.1.0 bus2=80439675270572.1.0 r1=0.975 x1=0.47 length=0.031495 units=km normamps=152.0
new line.52874094 phases=3 bus1=80439695270572.1.2.3.0 bus2=80439615270572.1.2.3.0 r1=0.975 x1=0.47 length=0.032923 units=km normamps=152.0
new line.52874099 phases=3 bus1=80436325270573.1.2.3.0 bus2=80436305270573.1.2.3.0 r1=0.613 x1=0.45 length=0.025011 units=km normamps=203.0
new line.52874101 phases=3 bus1=80436345270573.1.2.3.0 bus2=80436335270573.1.2.3.0 r1=0.613 x1=0.45 length=0.024296 units=km normamps=203.0
new line.52874106 phases=3 bus1=80436405270574.1.2.3.0 bus2=80436375270574.1.2.3.0 r1=0.975 x1=0.47 length=0.030238 units=km normamps=152.0
new line.52874108 phases=3 bus1=80436425270574.1.2.3.0 bus2=80436415270574.1.2.3.0 r1=0.975 x1=0.47 length=0.031501 units=km normamps=152.0
new line.52874114 phases=3 bus1=80436485270574.1.2.3.0 bus2=80436475270574.1.2.3.0 r1=0.975 x1=0.47 length=0.012356 units=km normamps=152.0
new line.52874116 phases=3 bus1=80437865270574.1.2.3.0 bus2=80437855270574.1.2.3.0 r1=0.975 x1=0.47 length=0.032897 units=km normamps=152.0
new line.52874121 phases=3 bus1=80437755270574.1.2.3.0 bus2=80437765270574.1.2.3.0 r1=0.975 x1=0.47 length=0.045133 units=km normamps=152.0
new line.52874123 phases=3 bus1=80438435270574.1.2.3.0 bus2=80437775270574.1.2.3.0 r1=0.975 x1=0.47 length=0.035304 units=km normamps=152.0
new line.52874124 phases=3 bus1=80438545270574.1.2.3.0 bus2=80438555270574.1.2.3.0 r1=0.975 x1=0.47 length=0.018103 units=km normamps=152.0
new line.52874125 phases=3 bus1=80438555270574.1.2.3.0 bus2=80438575270574.1.2.3.0 r1=0.975 x1=0.47 length=0.032403 units=km normamps=152.0
new line.52874126 phases=3 bus1=80438575270574.1.2.3.0 bus2=80438585270574.1.2.3.0 r1=0.975 x1=0.47 length=0.04263 units=km normamps=152.0
new line.52874132 phases=3 bus1=80436505270575.1.2.3.0 bus2=80436495270575.1.2.3.0 r1=0.975 x1=0.47 length=0.042076 units=km normamps=152.0
new line.52874133 phases=3 bus1=80436515270575.1.2.3.0 bus2=80436505270575.1.2.3.0 r1=0.613 x1=0.45 length=0.031501 units=km normamps=203.0
new line.52874136 phases=3 bus1=80436545270575.1.2.3.0 bus2=80436535270575.1.2.3.0 r1=0.613 x1=0.45 length=0.038506 units=km normamps=203.0
new line.52874137 phases=3 bus1=80436555270575.1.2.3.0 bus2=80436545270575.1.2.3.0 r1=0.613 x1=0.45 length=0.034818 units=km normamps=203.0
new line.52874138 phases=3 bus1=80436565270575.1.2.3.0 bus2=80436555270575.1.2.3.0 r1=0.613 x1=0.45 length=0.026163 units=km normamps=203.0
new line.52874140 phases=3 bus1=80436585270576.1.2.3.0 bus2=80436575270576.1.2.3.0 r1=0.613 x1=0.45 length=0.028837 units=km normamps=203.0
new line.52874143 phases=3 bus1=80437805270576.1.2.3.0 bus2=80436595270576.1.2.3.0 r1=0.975 x1=0.47 length=0.010257 units=km normamps=152.0
new line.52874144 phases=1 bus1=80434355270577.1.0 bus2=80434345270577.1.0 r1=0.975 x1=0.47 length=0.026745 units=km normamps=152.0
new line.52874146 phases=3 bus1=80436665270577.1.2.3.0 bus2=80436655270577.1.2.3.0 r1=0.613 x1=0.45 length=0.02065 units=km normamps=203.0
new line.52874147 phases=3 bus1=80436675270577.1.2.3.0 bus2=80436665270577.1.2.3.0 r1=0.613 x1=0.45 length=0.024626 units=km normamps=203.0
new line.52874156 phases=3 bus1=80436735270577.1.2.3.0 bus2=80436725270577.1.2.3.0 r1=0.975 x1=0.47 length=0.009701 units=km normamps=152.0
new line.52874159 phases=3 bus1=80436755270577.1.2.3.0 bus2=80436745270577.1.2.3.0 r1=0.975 x1=0.47 length=0.036239 units=km normamps=152.0
new line.52874163 phases=3 bus1=80436795270577.1.2.3.0 bus2=80436785270577.1.2.3.0 r1=0.975 x1=0.47 length=0.039989 units=km normamps=152.0
new line.52874172 phases=3 bus1=80436045270579.1.2.3.0 bus2=80436035270579.1.2.3.0 r1=0.613 x1=0.45 length=0.010428 units=km normamps=203.0
new line.52874176 phases=3 bus1=80436065270579.1.2.3.0 bus2=80436035270579.1.2.3.0 r1=0.975 x1=0.47 length=0.012934 units=km normamps=152.0
new line.52874179 phases=3 bus1=80437195270579.1.2.3.0 bus2=80437205270579.1.2.3.0 r1=0.975 x1=0.47 length=0.027438 units=km normamps=152.0
new line.52874181 phases=3 bus1=80437225270579.1.2.3.0 bus2=80437215270579.1.2.3.0 r1=0.613 x1=0.45 length=0.010676 units=km normamps=203.0
new line.52874186 phases=3 bus1=80437225270579.1.2.3.0 bus2=80437255270579.1.2.3.0 r1=0.975 x1=0.47 length=0.012934 units=km normamps=152.0
new line.52874192 phases=3 bus1=80437305270580.1.2.3.0 bus2=80437295270580.1.2.3.0 r1=0.613 x1=0.45 length=0.034632 units=km normamps=203.0
new line.52874194 phases=3 bus1=80437325270580.1.2.3.0 bus2=80437315270580.1.2.3.0 r1=0.613 x1=0.45 length=0.033292 units=km normamps=203.0
new line.52874196 phases=3 bus1=80437355270580.1.2.3.0 bus2=80437335270580.1.2.3.0 r1=0.975 x1=0.47 length=0.033436 units=km normamps=152.0
new line.52874202 phases=3 bus1=80437445270580.1.2.3.0 bus2=80437345270580.1.2.3.0 r1=0.975 x1=0.47 length=0.013797 units=km normamps=152.0
new line.52874204 phases=3 bus1=80437455270580.1.2.3.0 bus2=80437465270580.1.2.3.0 r1=0.975 x1=0.47 length=0.035864 units=km normamps=152.0
new line.52874207 phases=3 bus1=80437485270580.1.2.3.0 bus2=80437495270580.1.2.3.0 r1=0.975 x1=0.47 length=0.02228 units=km normamps=152.0
new line.52874211 phases=3 bus1=80437525270580.1.2.3.0 bus2=80437535270580.1.2.3.0 r1=0.975 x1=0.47 length=0.014641 units=km normamps=152.0
new line.52874213 phases=3 bus1=80437345270580.1.2.3.0 bus2=80437535270580.1.2.3.0 r1=0.975 x1=0.47 length=0.014641 units=km normamps=152.0
new line.52874215 phases=3 bus1=80437545270580.1.2.3.0 bus2=80437555270580.1.2.3.0 r1=0.975 x1=0.47 length=0.026214 units=km normamps=152.0
new line.52874218 phases=3 bus1=80439505270583.1.2.3.0 bus2=80439495270583.1.2.3.0 r1=0.975 x1=0.47 length=0.019903 units=km normamps=152.0
new line.52874219 phases=3 bus1=80439495270583.1.2.3.0 bus2=80439515270583.1.2.3.0 r1=0.613 x1=0.45 length=0.020268 units=km normamps=203.0
new line.52874222 phases=3 bus1=80439545270583.1.2.3.0 bus2=80439485270583.1.2.3.0 r1=0.613 x1=0.45 length=0.031805 units=km normamps=203.0
new line.52874223 phases=3 bus1=80439555270583.1.2.3.0 bus2=80439545270583.1.2.3.0 r1=0.613 x1=0.45 length=0.030508 units=km normamps=203.0
new line.52874231 phases=3 bus1=80439245270584.1.2.3.0 bus2=80439205270584.1.2.3.0 r1=0.613 x1=0.45 length=0.040541 units=km normamps=203.0
new line.52874234 phases=3 bus1=80439275270584.1.2.3.0 bus2=80439265270584.1.2.3.0 r1=0.613 x1=0.45 length=0.03324 units=km normamps=203.0
new line.52874235 phases=3 bus1=80438795270584.1.2.3.0 bus2=80439275270584.1.2.3.0 r1=0.613 x1=0.45 length=0.032875 units=km normamps=203.0
new line.52874237 phases=3 bus1=80438815270584.1.2.3.0 bus2=80438805270584.1.2.3.0 r1=0.975 x1=0.47 length=0.028639 units=km normamps=152.0
new line.52874238 phases=3 bus1=80438825270584.1.2.3.0 bus2=80438815270584.1.2.3.0 r1=0.975 x1=0.47 length=0.029112 units=km normamps=152.0
new line.52874242 phases=3 bus1=80439595270583.1.2.3.0 bus2=80438275270583.1.2.3.0 r1=0.975 x1=0.47 length=0.031501 units=km normamps=152.0
new line.52874243 phases=3 bus1=80439535270583.1.2.3.0 bus2=80438285270583.1.2.3.0 r1=0.975 x1=0.47 length=0.041969 units=km normamps=152.0
new line.52874246 phases=3 bus1=80438395270583.1.2.3.0 bus2=80438405270583.1.2.3.0 r1=0.975 x1=0.47 length=0.041966 units=km normamps=152.0
new line.52874247 phases=3 bus1=80438405270583.1.2.3.0 bus2=80438415270583.1.2.3.0 r1=0.975 x1=0.47 length=0.044627 units=km normamps=152.0
new line.52874248 phases=3 bus1=80439175270584.1.2.3.0 bus2=80439165270584.1.2.3.0 r1=0.975 x1=0.47 length=0.025068 units=km normamps=152.0
new line.52874250 phases=3 bus1=80439195270584.1.2.3.0 bus2=80439185270584.1.2.3.0 r1=0.975 x1=0.47 length=0.041614 units=km normamps=152.0
new line.52874251 phases=3 bus1=80439205270584.1.2.3.0 bus2=80439195270584.1.2.3.0 r1=0.975 x1=0.47 length=0.033211 units=km normamps=152.0
new line.52874254 phases=3 bus1=80438865270584.1.2.3.0 bus2=80438855270584.1.2.3.0 r1=0.975 x1=0.47 length=0.038582 units=km normamps=152.0
new line.52874258 phases=3 bus1=80439075270584.1.2.3.0 bus2=80439065270584.1.2.3.0 r1=0.975 x1=0.47 length=0.027275 units=km normamps=152.0
new line.52874259 phases=3 bus1=80439295270585.1.2.3.0 bus2=80439285270585.1.2.3.0 r1=0.975 x1=0.47 length=0.036544 units=km normamps=152.0
new line.52874260 phases=3 bus1=80435955270585.1.2.3.0 bus2=80439295270585.1.2.3.0 r1=0.975 x1=0.47 length=0.020021 units=km normamps=152.0
new line.52874264 phases=3 bus1=80439335270585.1.2.3.0 bus2=80439325270585.1.2.3.0 r1=0.613 x1=0.45 length=0.030909 units=km normamps=203.0
new line.52874275 phases=3 bus1=80439465270585.1.2.3.0 bus2=80439455270585.1.2.3.0 r1=0.975 x1=0.47 length=0.027128 units=km normamps=152.0
new line.52874280 phases=3 bus1=80439455270585.1.2.3.0 bus2=80438145270585.1.2.3.0 r1=0.975 x1=0.47 length=0.037179 units=km normamps=152.0
new line.52874282 phases=3 bus1=80439685270585.1.2.3.0 bus2=80439365270585.1.2.3.0 r1=0.975 x1=0.47 length=0.030692 units=km normamps=152.0
new line.52874287 phases=3 bus1=80440215591555.1.2.3.0 bus2=80440205591555.1.2.3.0 r1=0.991 x1=0.1 length=0.040918 units=km normamps=100.0
new line.52874296 phases=3 bus1=80440305270585.1.2.3.0 bus2=80435985270585.1.2.3.0 r1=0.975 x1=0.47 length=0.054157 units=km normamps=152.0
new line.52874305 phases=3 bus1=80439415270586.1.2.3.0 bus2=80437945270586.1.2.3.0 r1=1.551 x1=0.49 length=0.026383 units=km normamps=114.0
new line.52874316 phases=3 bus1=80438235270586.1.2.3.0 bus2=80438005270586.1.2.3.0 r1=0.975 x1=0.47 length=0.027846 units=km normamps=152.0
new line.52874317 phases=3 bus1=80437875270588.1.2.3.0 bus2=80436235270588.1.2.3.0 r1=0.975 x1=0.47 length=0.016469 units=km normamps=152.0
new line.52874321 phases=3 bus1=80436015291649.1.2.3.0 bus2=80435995291649.1.2.3.0 r1=0.975 x1=0.47 length=0.022969 units=km normamps=152.0
new line.52874324 phases=3 bus1=80436125291649.1.2.3.0 bus2=80436115291649.1.2.3.0 r1=0.975 x1=0.47 length=0.030272 units=km normamps=152.0
new line.52874331 phases=3 bus1=80436275270589.1.2.3.0 bus2=80436265270589.1.2.3.0 r1=0.506 x1=0.1 length=0.030279 units=km normamps=157.0
new line.52874332 phases=3 bus1=80436285270589.1.2.3.0 bus2=80436275270589.1.2.3.0 r1=0.506 x1=0.1 length=0.036709 units=km normamps=157.0
new line.52874336 phases=3 bus1=80439095270590.1.2.3.0 bus2=80439105270590.1.2.3.0 r1=0.975 x1=0.47 length=0.033173 units=km normamps=152.0
new line.52874337 phases=3 bus1=80439105270590.1.2.3.0 bus2=80439115270590.1.2.3.0 r1=0.975 x1=0.47 length=0.02245 units=km normamps=152.0
new line.52874339 phases=3 bus1=80439125270590.1.2.3.0 bus2=80439135270590.1.2.3.0 r1=0.975 x1=0.47 length=0.01244 units=km normamps=152.0
new line.52874341 phases=3 bus1=80439145270590.1.2.3.0 bus2=80436935270590.1.2.3.0 r1=0.975 x1=0.47 length=0.047869 units=km normamps=152.0
new line.52874343 phases=3 bus1=80436635594047.1.2.3.0 bus2=80436625594047.1.2.3.0 r1=0.613 x1=0.45 length=0.026248 units=km normamps=203.0
new line.52874344 phases=3 bus1=80436645594047.1.2.3.0 bus2=80436635594047.1.2.3.0 r1=0.975 x1=0.47 length=0.009351 units=km normamps=152.0
new line.52874345 phases=3 bus1=80436655594047.1.2.3.0 bus2=80436635594047.1.2.3.0 r1=0.613 x1=0.45 length=0.025222 units=km normamps=203.0
new line.52874346 phases=3 bus1=80436805270590.1.2.3.0 bus2=80436795270590.1.2.3.0 r1=0.613 x1=0.45 length=0.015452 units=km normamps=203.0
new line.52874347 phases=3 bus1=80436815270590.1.2.3.0 bus2=80436805270590.1.2.3.0 r1=0.613 x1=0.45 length=0.009908 units=km normamps=203.0
new line.52874357 phases=3 bus1=80436905594047.1.2.3.0 bus2=80436895594047.1.2.3.0 r1=0.975 x1=0.47 length=0.029074 units=km normamps=152.0
new line.52874360 phases=3 bus1=80436925270590.1.2.3.0 bus2=80436805270590.1.2.3.0 r1=0.975 x1=0.47 length=0.020856 units=km normamps=152.0
new line.52874361 phases=3 bus1=80436935270590.1.2.3.0 bus2=80436925270590.1.2.3.0 r1=0.975 x1=0.47 length=0.03217 units=km normamps=152.0
new line.52874369 phases=3 bus1=80436215270593.1.2.3.0 bus2=80436205270593.1.2.3.0 r1=0.975 x1=0.47 length=0.025562 units=km normamps=152.0
new line.52874374 phases=3 bus1=80437905270593.1.2.3.0 bus2=80437135270593.1.2.3.0 r1=0.975 x1=0.47 length=0.024274 units=km normamps=152.0
new line.52874375 phases=3 bus1=80437135270593.1.2.3.0 bus2=80437145270593.1.2.3.0 r1=0.975 x1=0.47 length=0.0401 units=km normamps=152.0
new line.52874377 phases=3 bus1=80437905270593.1.2.3.0 bus2=80437195270593.1.2.3.0 r1=0.975 x1=0.47 length=0.023212 units=km normamps=152.0
new line.52874379 phases=3 bus1=80438485270595.1.2.3.0 bus2=80438475270595.1.2.3.0 r1=0.975 x1=0.47 length=0.028423 units=km normamps=152.0
new line.52874382 phases=3 bus1=80437725270596.1.2.3.0 bus2=80437735270596.1.2.3.0 r1=0.975 x1=0.47 length=0.038206 units=km normamps=152.0
new line.52874393 phases=3 bus1=80438635270597.1.2.3.0 bus2=80438625270597.1.2.3.0 r1=0.975 x1=0.47 length=0.033801 units=km normamps=152.0
new line.52874402 phases=3 bus1=80438905270597.1.2.3.0 bus2=80438895270597.1.2.3.0 r1=0.613 x1=0.45 length=0.036438 units=km normamps=203.0
new line.52874403 phases=3 bus1=80438915270597.1.2.3.0 bus2=80438905270597.1.2.3.0 r1=0.613 x1=0.45 length=0.029628 units=km normamps=203.0
new line.52874404 phases=3 bus1=80438935270597.1.2.3.0 bus2=80438915270597.1.2.3.0 r1=0.613 x1=0.45 length=0.034644 units=km normamps=203.0
new line.52874405 phases=3 bus1=80438945270597.1.2.3.0 bus2=80438935270597.1.2.3.0 r1=0.975 x1=0.47 length=0.011306 units=km normamps=152.0
new line.52874406 phases=3 bus1=80438955270597.1.2.3.0 bus2=80438945270597.1.2.3.0 r1=0.975 x1=0.47 length=0.032424 units=km normamps=152.0
new line.52874416 phases=3 bus1=80433515270599.1.2.3.0 bus2=80433505270599.1.2.3.0 r1=0.975 x1=0.47 length=0.033934 units=km normamps=152.0
new line.52874418 phases=3 bus1=80433545270599.1.2.3.0 bus2=80433525270599.1.2.3.0 r1=0.975 x1=0.47 length=0.034101 units=km normamps=152.0
new line.52874421 phases=3 bus1=80433565270599.1.2.3.0 bus2=80433555270599.1.2.3.0 r1=0.975 x1=0.47 length=0.027816 units=km normamps=152.0
new line.52874427 phases=3 bus1=80435435270599.1.2.3.0 bus2=80435425270599.1.2.3.0 r1=0.991 x1=0.1 length=0.053788 units=km normamps=100.0
new line.52874431 phases=3 bus1=80440135270599.1.2.3.0 bus2=80435915270599.1.2.3.0 r1=0.506 x1=0.1 length=0.03539 units=km normamps=157.0
new line.52874432 phases=3 bus1=80440125270599.1.2.3.0 bus2=80440055270599.1.2.3.0 r1=0.991 x1=0.1 length=0.008737 units=km normamps=100.0
new line.52874434 phases=3 bus1=80440145270599.1.2.3.0 bus2=80440085270599.1.2.3.0 r1=0.991 x1=0.1 length=0.013681 units=km normamps=100.0
new line.52874435 phases=3 bus1=80440155270599.1.2.3.0 bus2=80440145270599.1.2.3.0 r1=0.975 x1=0.47 length=0.026435 units=km normamps=152.0
new line.52874436 phases=3 bus1=80440145270599.1.2.3.0 bus2=80440075270599.1.2.3.0 r1=0.991 x1=0.1 length=0.030677 units=km normamps=100.0
new line.52874441 phases=3 bus1=80439985270599.1.2.3.0 bus2=80440005270599.1.2.3.0 r1=0.991 x1=0.1 length=0.021877 units=km normamps=100.0
new line.52874443 phases=3 bus1=80440025270599.1.2.3.0 bus2=80440015270599.1.2.3.0 r1=0.975 x1=0.47 length=0.032998 units=km normamps=152.0
new line.52874445 phases=3 bus1=80440045270599.1.2.3.0 bus2=80440005270599.1.2.3.0 r1=0.991 x1=0.1 length=0.04242 units=km normamps=100.0
new line.52874447 phases=3 bus1=80435205270600.1.2.3.0 bus2=80435215270600.1.2.3.0 r1=0.506 x1=0.1 length=0.031847 units=km normamps=157.0
new line.52874448 phases=3 bus1=80435225270600.1.2.3.0 bus2=80435205270600.1.2.3.0 r1=0.506 x1=0.1 length=0.025808 units=km normamps=157.0
new line.52874450 phases=3 bus1=80435305270600.1.2.3.0 bus2=80435315270600.1.2.3.0 r1=0.991 x1=0.1 length=0.018284 units=km normamps=100.0
new line.52874452 phases=3 bus1=80435555270600.1.2.3.0 bus2=80435475270600.1.2.3.0 r1=0.506 x1=0.1 length=0.029937 units=km normamps=157.0
...
